// Generated for: spectre
// Generated on: Feb  5 13:41:13 2026
// Design library name: SAR
// Design cell name: test_switch
// Design view name: schematic
simulator lang=spectre
global 0 vdd!
parameters L=0.35u wn=9u wp=4.1*wn
include "/usr/local/XFAB/xh018/cadence/v10_1/spectre/v10_1_1/lpmos/config.scs" section=default
include "/usr/local/XFAB/xh018/cadence/v10_1/spectre/v10_1_1/lpmos/param.scs" section=3s
include "/usr/local/XFAB/xh018/cadence/v10_1/spectre/v10_1_1/lpmos/bip.scs" section=tm
include "/usr/local/XFAB/xh018/cadence/v10_1/spectre/v10_1_1/lpmos/cap.scs" section=tm
include "/usr/local/XFAB/xh018/cadence/v10_1/spectre/v10_1_1/lpmos/dio.scs" section=tm
include "/usr/local/XFAB/xh018/cadence/v10_1/spectre/v10_1_1/lpmos/mos.scs" section=tm
include "/usr/local/XFAB/xh018/cadence/v10_1/spectre/v10_1_1/lpmos/photo.scs" section=tm
include "/usr/local/XFAB/xh018/cadence/v10_1/spectre/v10_1_1/lpmos/res.scs" section=tm

// Library name: SAR
// Cell name: switch
// View name: schematic
subckt switch CMD\+ CMD\- S\+ S\-
    M0 (S\+ CMD\+ S\- 0) ne3 w=wn/1 l=L  as=4.8e-07*(wn/1) \
        ad=4.8e-07*(wn/1) ps=1*2*(4.8e-07+(wn/1)) pd=2*(4.8e-07+(wn/1)) \
        nrs=2.7e-07/(wn/1) nrd=2.7e-07/(wn/1) m=(1)*(1) par1=(1)*(1) \
        xf_subext=0
    M1 (S\- CMD\- S\+ vdd!) pe3 w=wp/1 l=L as=4.8e-07*(wp/1) \
        ad=4.8e-07*(wp/1) ps=1*2*(4.8e-07+(wp/1)) pd=2*(4.8e-07+(wp/1)) \
        nrs=2.7e-07/(wp/1) nrd=2.7e-07/(wp/1) m=(1)*(1) par1=(1)*(1)
ends switch
// End of subcircuit definition.

// Library name: SAR
// Cell name: test_switch
// View name: schematic
V3 (net04 net6) isource dc=1u type=dc
V5 (net6 0) vsource dc=1.65 type=dc
V4 (vdd! 0) vsource dc=3.3 type=dc
V0 (net3 0) vsource dc=3.3 type=dc
E0 (R 0 net6 net04) vcvs gain=1000000
I2 (net3 0 net6 net04) switch
simulatorOptions options psfversion="1.4.0" reltol=1e-3 vabstol=1e-6 \
    iabstol=1e-12 temp=27 tnom=27 scalem=1.0 scale=1.0 compatible=spice2 \
    gmin=1e-12 rforce=1 maxnotes=5 maxwarns=5 digits=5 cols=80 pivrel=1e-3 \
    sensfile="../psf/sens.output" checklimitdest=psf 
dcOp dc write="spectre.dc" maxiters=150 maxsteps=10000 annotate=status
dcOpInfo info what=oppoint where=rawfile
dc dc dev=V5 param=dc start=0 stop=3.3 oppoint=rawfile maxiters=150 \
    maxsteps=10000 annotate=status
modelParameter info what=models where=rawfile
element info what=inst where=rawfile
outputParameter info what=output where=rawfile
designParamVals info what=parameters where=rawfile
primitives info what=primitives where=rawfile
subckts info what=subckts where=rawfile
save R 0 net6 net3 
saveOptions options save=all currents=all
