// Generated for: spectre
// Generated on: Feb 19 15:29:48 2026
// Design library name: SAR
// Design cell name: test_sar8
// Design view name: config
simulator lang=spectre
global 0 vdd3! vdd!
